[TITLE]
modena -- Bragalli, D'Ambrosio, Lee, Lodi, Toth (2011)

[JUNCTIONS]
;ID              	Elev        	Demand      	Pattern         
 1               	39.4900     	0.030000    	1               	; 
 2               	39.6200     	0.725000    	1               	; 
 3               	38.7000     	2.565000    	1               	; 
 4               	37.2500     	1.380000    	1               	; 
 5               	36.2700     	0.480000    	1               	; 
 6               	35.9500     	0.390000    	1               	; 
 7               	35.9500     	0.515000    	1               	; 
 8               	36.0900     	1.060000    	1               	; 
 9               	36.1800     	0.580000    	1               	; 
 10              	37.0000     	0.890000    	1               	; 
 11              	36.5000     	0.220000    	1               	; 
 12              	37.3900     	0.015000    	1               	; 
 13              	38.0700     	0.285000    	1               	; 
 14              	37.0200     	0.180000    	1               	; 
 15              	41.2600     	1.650000    	1               	; 
 16              	39.3500     	0.015000    	1               	; 
 17              	39.5300     	1.050000    	1               	; 
 18              	36.5900     	2.335000    	1               	; 
 19              	36.7600     	0.000000    	1               	; 
 20              	37.7200     	0.765000    	1               	; 
 21              	37.3100     	2.305000    	1               	; 
 22              	37.6200     	0.530000    	1               	; 
 23              	36.9900     	0.660000    	1               	; 
 24              	35.2000     	1.370000    	1               	; 
 25              	35.1100     	0.295000    	1               	; 
 26              	34.6500     	0.225000    	1               	; 
 27              	34.3300     	0.320000    	1               	; 
 28              	36.1500     	3.555000    	1               	; 
 29              	36.3000     	0.465000    	1               	; 
 30              	36.1000     	0.020000    	1               	; 
 31              	36.1400     	0.010000    	1               	; 
 32              	35.8000     	1.465000    	1               	; 
 33              	33.2600     	1.170000    	1               	; 
 34              	33.3400     	0.970000    	1               	; 
 35              	33.5100     	0.595000    	1               	; 
 36              	32.7000     	0.705000    	1               	; 
 37              	32.6500     	1.490000    	1               	; 
 38              	32.5600     	1.055000    	1               	; 
 39              	33.5600     	3.870000    	1               	; 
 40              	31.5900     	2.145000    	1               	; 
 41              	31.3800     	3.890000    	1               	; 
 42              	32.6700     	1.875000    	1               	; 
 43              	33.5000     	1.185000    	1               	; 
 44              	33.5700     	0.710000    	1               	; 
 45              	33.7700     	0.160000    	1               	; 
 46              	34.1400     	0.570000    	1               	; 
 47              	33.6800     	0.615000    	1               	; 
 48              	33.7100     	0.685000    	1               	; 
 49              	31.6800     	0.590000    	1               	; 
 50              	33.3400     	0.905000    	1               	; 
 51              	32.8300     	0.485000    	1               	; 
 52              	32.7800     	0.275000    	1               	; 
 53              	39.2800     	1.385000    	1               	; 
 54              	37.1200     	0.325000    	1               	; 
 55              	36.4800     	0.690000    	1               	; 
 56              	36.4200     	4.140000    	1               	; 
 57              	36.1300     	0.610000    	1               	; 
 58              	36.0500     	1.925000    	1               	; 
 59              	36.7700     	1.310000    	1               	; 
 60              	35.4800     	1.390000    	1               	; 
 61              	35.0500     	0.780000    	1               	; 
 62              	35.1000     	0.580000    	1               	; 
 63              	37.9500     	0.610000    	1               	; 
 64              	38.4400     	1.465000    	1               	; 
 65              	37.8100     	0.565000    	1               	; 
 66              	38.2200     	0.560000    	1               	; 
 67              	38.7300     	0.240000    	1               	; 
 68              	38.9500     	0.685000    	1               	; 
 69              	39.7000     	1.130000    	1               	; 
 70              	40.5900     	0.655000    	1               	; 
 71              	40.8100     	0.530000    	1               	; 
 72              	41.0600     	0.190000    	1               	; 
 73              	41.4500     	0.880000    	1               	; 
 74              	41.8300     	0.280000    	1               	; 
 75              	41.4400     	0.000000    	1               	; 
 76              	41.0900     	2.320000    	1               	; 
 77              	40.7400     	0.515000    	1               	; 
 78              	38.6000     	1.540000    	1               	; 
 79              	36.9100     	0.800000    	1               	; 
 80              	36.7500     	2.245000    	1               	; 
 81              	36.8100     	0.625000    	1               	; 
 82              	37.0500     	0.435000    	1               	; 
 83              	35.8800     	0.360000    	1               	; 
 84              	36.4500     	0.245000    	1               	; 
 85              	36.1600     	1.960000    	1               	; 
 86              	34.9900     	0.470000    	1               	; 
 87              	35.6100     	1.665000    	1               	; 
 88              	34.8900     	2.085000    	1               	; 
 89              	35.5900     	0.720000    	1               	; 
 90              	35.7000     	0.920000    	1               	; 
 91              	35.2000     	1.000000    	1               	; 
 92              	35.6400     	1.120000    	1               	; 
 93              	35.9300     	0.100000    	1               	; 
 94              	37.6400     	1.135000    	1               	; 
 95              	37.1700     	0.720000    	1               	; 
 96              	37.1000     	1.335000    	1               	; 
 97              	36.9700     	0.300000    	1               	; 
 98              	37.0000     	1.380000    	1               	; 
 99              	36.7400     	0.025000    	1               	; 
 100             	34.7800     	1.030000    	1               	; 
 101             	34.2600     	1.595000    	1               	; 
 102             	33.6600     	2.345000    	1               	; 
 103             	33.7800     	0.850000    	1               	; 
 104             	33.7500     	0.010000    	1               	; 
 105             	33.3800     	0.050000    	1               	; 
 106             	34.8500     	0.555000    	1               	; 
 107             	34.2700     	0.510000    	1               	; 
 108             	34.3000     	0.440000    	1               	; 
 109             	33.9500     	1.165000    	1               	; 
 110             	33.9200     	0.155000    	1               	; 
 111             	32.3200     	0.225000    	1               	; 
 112             	34.7600     	1.480000    	1               	; 
 113             	34.2100     	4.060000    	1               	; 
 114             	34.9200     	0.880000    	1               	; 
 115             	32.9600     	2.980000    	1               	; 
 116             	30.6900     	0.000000    	1               	; 
 117             	30.5900     	3.170000    	1               	; 
 118             	30.7300     	0.000000    	1               	; 
 119             	30.7000     	0.000000    	1               	; 
 120             	31.0200     	1.515000    	1               	; 
 121             	31.0300     	0.925000    	1               	; 
 122             	31.7500     	0.885000    	1               	; 
 123             	32.0000     	0.740000    	1               	; 
 124             	32.0500     	0.000000    	1               	; 
 125             	32.1000     	0.660000    	1               	; 
 126             	33.7600     	1.120000    	1               	; 
 127             	32.2700     	0.630000    	1               	; 
 128             	31.8600     	2.695000    	1               	; 
 129             	32.4200     	0.500000    	1               	; 
 130             	33.0000     	0.805000    	1               	; 
 131             	33.6300     	2.355000    	1               	; 
 132             	36.3700     	1.320000    	1               	; 
 133             	35.6900     	1.055000    	1               	; 
 134             	35.5200     	0.755000    	1               	; 
 135             	35.5600     	0.420000    	1               	; 
 136             	35.9200     	0.525000    	1               	; 
 137             	35.3700     	0.580000    	1               	; 
 138             	35.0600     	1.225000    	1               	; 
 139             	34.1200     	0.830000    	1               	; 
 140             	39.3500     	0.000000    	1               	; 
 141             	39.1000     	0.000000    	1               	; 
 142             	39.8400     	0.000000    	1               	; 
 143             	39.8400     	0.400000    	1               	; 
 144             	39.4500     	0.165000    	1               	; 
 145             	39.7000     	0.170000    	1               	; 
 146             	37.9500     	0.510000    	1               	; 
 147             	37.6100     	0.615000    	1               	; 
 148             	37.9500     	0.045000    	1               	; 
 149             	35.6900     	0.215000    	1               	; 
 150             	35.3200     	0.780000    	1               	; 
 151             	35.8100     	0.400000    	1               	; 
 152             	35.8100     	0.690000    	1               	; 
 153             	36.0200     	0.265000    	1               	; 
 154             	38.2500     	0.295000    	1               	; 
 155             	37.5000     	1.165000    	1               	; 
 156             	37.5400     	0.015000    	1               	; 
 157             	37.0800     	0.155000    	1               	; 
 158             	36.7600     	4.245000    	1               	; 
 159             	35.8800     	0.160000    	1               	; 
 160             	35.7700     	0.105000    	1               	; 
 161             	34.7000     	0.010000    	1               	; 
 162             	35.3700     	0.615000    	1               	; 
 163             	34.9900     	0.495000    	1               	; 
 164             	35.9300     	0.275000    	1               	; 
 165             	36.2700     	0.390000    	1               	; 
 166             	32.6700     	0.135000    	1               	; 
 167             	32.7500     	0.135000    	1               	; 
 168             	32.8800     	0.035000    	1               	; 
 169             	34.0900     	4.735000    	1               	; 
 170             	36.0900     	1.320000    	1               	; 
 171             	36.0500     	0.510000    	1               	; 
 172             	36.0400     	0.440000    	1               	; 
 173             	36.0200     	0.245000    	1               	; 
 174             	31.7600     	0.000000    	1               	; 
 175             	31.9100     	0.560000    	1               	; 
 176             	31.8000     	0.000000    	1               	; 
 177             	31.4800     	0.000000    	1               	; 
 178             	31.1200     	0.005000    	1               	; 
 179             	31.1000     	0.000000    	1               	; 
 180             	31.1900     	0.000000    	1               	; 
 181             	30.3900     	0.000000    	1               	; 
 182             	30.5500     	0.005000    	1               	; 
 183             	31.1300     	0.920000    	1               	; 
 184             	31.8100     	0.020000    	1               	; 
 185             	32.3400     	0.840000    	1               	; 
 186             	32.8300     	1.185000    	1               	; 
 187             	33.6900     	0.045000    	1               	; 
 188             	33.1700     	0.615000    	1               	; 
 189             	33.2300     	1.950000    	1               	; 
 190             	33.3400     	0.585000    	1               	; 
 191             	33.7700     	0.850000    	1               	; 
 192             	33.7700     	1.075000    	1               	; 
 193             	32.2000     	2.000000    	1               	; 
 194             	34.4100     	2.230000    	1               	; 
 195             	33.3900     	0.025000    	1               	; 
 196             	34.3400     	0.005000    	1               	; 
 197             	35.0300     	2.060000    	1               	; 
 198             	34.4400     	0.195000    	1               	; 
 199             	34.5300     	0.075000    	1               	; 
 200             	34.9400     	0.910000    	1               	; 
 201             	34.7000     	1.715000    	1               	; 
 202             	36.7000     	0.310000    	1               	; 
 203             	36.2000     	2.085000    	1               	; 
 204             	35.0300     	1.130000    	1               	; 
 205             	36.7700     	0.505000    	1               	; 
 206             	36.2000     	0.270000    	1               	; 
 207             	37.8800     	0.385000    	1               	; 
 208             	38.0300     	0.165000    	1               	; 
 209             	36.8600     	0.575000    	1               	; 
 210             	37.2400     	0.765000    	1               	; 
 211             	36.6600     	0.000000    	1               	; 
 212             	36.4900     	0.150000    	1               	; 
 213             	37.3000     	0.160000    	1               	; 
 214             	40.3000     	0.280000    	1               	; 
 215             	39.8500     	0.000000    	1               	; 
 216             	41.0000     	0.095000    	1               	; 
 217             	41.1600     	0.710000    	1               	; 
 218             	35.0500     	0.295000    	1               	; 
 219             	33.9200     	0.740000    	1               	; 
 220             	32.1400     	0.460000    	1               	; 
 221             	34.1700     	0.165000    	1               	; 
 222             	35.1000     	0.030000    	1               	; 
 223             	31.5500     	0.230000    	1               	; 
 224             	31.7500     	0.360000    	1               	; 
 225             	32.0700     	0.000000    	1               	; 
 226             	31.9400     	0.000000    	1               	; 
 227             	31.6600     	0.100000    	1               	; 
 228             	31.0400     	0.040000    	1               	; 
 229             	31.0500     	0.650000    	1               	; 
 230             	38.4900     	0.535000    	1               	; 
 231             	35.6800     	0.515000    	1               	; 
 232             	35.3900     	0.015000    	1               	; 
 233             	34.8900     	0.575000    	1               	; 
 234             	34.8600     	0.715000    	1               	; 
 235             	34.9900     	2.430000    	1               	; 
 236             	32.5400     	2.355000    	1               	; 
 237             	34.4100     	0.670000    	1               	; 
 238             	36.1600     	0.935000    	1               	; 
 239             	35.3000     	0.410000    	1               	; 
 240             	35.1700     	0.470000    	1               	; 
 241             	32.9200     	0.045000    	1               	; 
 242             	33.0700     	0.640000    	1               	; 
 243             	31.9100     	0.215000    	1               	; 
 244             	32.0000     	0.255000    	1               	; 
 245             	32.0500     	0.000000    	1               	; 
 246             	32.0500     	0.005000    	1               	; 
 247             	30.7000     	0.005000    	1               	; 
 248             	31.3300     	0.000000    	1               	; 
 249             	36.3000     	0.875000    	1               	; 
 250             	35.8300     	0.515000    	1               	; 
 251             	36.9500     	0.630000    	1               	; 
 252             	38.0100     	0.680000    	1               	; 
 253             	36.6500     	0.070000    	1               	; 
 254             	36.9100     	0.000000    	1               	; 
 255             	36.7700     	0.980000    	1               	; 
 256             	31.5000     	1.105000    	1               	; 
 257             	38.6500     	0.310000    	1               	; 
 258             	39.5400     	0.000000    	1               	; 
 259             	39.5800     	0.250000    	1               	; 
 260             	39.5800     	0.055000    	1               	; 
 261             	40.5500     	0.060000    	1               	; 
 262             	40.7900     	0.110000    	1               	; 
 263             	40.9500     	0.640000    	1               	; 
 264             	37.7600     	0.095000    	1               	; 
 265             	35.9600     	0.110000    	1               	; 
 266             	36.8100     	0.595000    	1               	; 
 267             	36.2100     	0.845000    	1               	; 
 268             	35.6100     	0.215000    	1               	; 

[RESERVOIRS]
;ID              	Head        	Pattern         
 269             	78.5000     	Res_Pat         	; 
 270             	78.8000     	Res_Pat         	; 
 271             	78.5000     	Res_Pat         	; 
 272             	79.5000     	Res_Pat         	; 

[TANKS]
;ID              	Elevation   	InitLevel   	MinLevel    	MaxLevel    	Diameter    	MinVol      	VolCurve

[PIPES]
;ID              	Node1           	Node2           	Length      	Diameter    	Roughness   	MinorLoss   	Status
 1               	1               	16              	46.8400     	125.0000    	98.0000     	0.0000      	Open  	; 
 2               	16              	2               	267.6800    	100.0000    	115.0000    	0.0000      	Open  	; 
 3               	2               	3               	541.0700    	100.0000    	62.0000     	0.0000      	Open  	; 
 4               	3               	4               	542.2900    	100.0000    	102.0000    	0.0000      	Open  	; 
 5               	4               	5               	404.7200    	100.0000    	95.0000     	0.0000      	Open  	; 
 6               	5               	206             	151.6700    	100.0000    	74.0000     	0.0000      	Open  	; 
 7               	206             	6               	341.5700    	100.0000    	85.0000     	0.0000      	Open  	; 
 8               	1               	140             	39.9100     	100.0000    	95.0000     	0.0000      	Open  	; 
 9               	140             	143             	269.7300    	100.0000    	138.0000    	0.0000      	Open  	; 
 10              	143             	145             	45.9200     	100.0000    	127.0000    	0.0000      	Open  	; 
 11              	145             	146             	890.0900    	100.0000    	73.0000     	0.0000      	Open  	; 
 12              	146             	148             	33.7900     	100.0000    	130.0000    	0.0000      	Open  	; 
 13              	148             	63              	6.0300      	100.0000    	100.0000    	0.0000      	Open  	; 
 14              	63              	149             	367.9200    	125.0000    	90.0000     	0.0000      	Open  	; 
 15              	149             	150             	97.6600     	125.0000    	100.0000    	0.0000      	Open  	; 
 16              	150             	60              	322.1900    	100.0000    	88.0000     	0.0000      	Open  	; 
 17              	60              	61              	359.4800    	100.0000    	89.0000     	0.0000      	Open  	; 
 18              	61              	218             	199.5900    	100.0000    	110.0000    	0.0000      	Open  	; 
 19              	1               	141             	57.0600     	200.0000    	109.0000    	0.0000      	Open  	; 
 20              	141             	142             	223.4100    	200.0000    	109.0000    	0.0000      	Open  	; 
 21              	142             	144             	47.0300     	200.0000    	100.0000    	0.0000      	Open  	; 
 22              	144             	257             	782.6700    	200.0000    	75.0000     	0.0000      	Open  	; 
 23              	257             	53              	231.8700    	125.0000    	100.0000    	0.0000      	Open  	; 
 24              	53              	251             	279.8400    	100.0000    	112.0000    	0.0000      	Open  	; 
 25              	251             	57              	145.7000    	100.0000    	97.0000     	0.0000      	Open  	; 
 26              	57              	58              	81.1000     	100.0000    	104.0000    	0.0000      	Open  	; 
 27              	58              	59              	550.1700    	100.0000    	100.0000    	0.0000      	Open  	; 
 28              	53              	230             	155.6300    	100.0000    	87.0000     	0.0000      	Open  	; 
 29              	230             	252             	357.8100    	100.0000    	95.0000     	0.0000      	Open  	; 
 30              	252             	3               	267.3200    	100.0000    	81.0000     	0.0000      	Open  	; 
 31              	3               	13              	612.5000    	100.0000    	103.0000    	0.0000      	Open  	; 
 32              	13              	12              	160.5000    	100.0000    	76.0000     	0.0000      	Open  	; 
 33              	12              	11              	531.7100    	100.0000    	77.0000     	0.0000      	Open  	; 
 34              	1               	258             	41.9100     	200.0000    	80.0000     	0.0000      	Open  	; 
 35              	258             	259             	95.2200     	200.0000    	53.0000     	0.0000      	Open  	; 
 36              	259             	260             	25.1300     	200.0000    	110.0000    	0.0000      	Open  	; 
 37              	260             	215             	158.1200    	200.0000    	95.0000     	0.0000      	Open  	; 
 38              	215             	261             	95.4000     	200.0000    	81.0000     	0.0000      	Open  	; 
 39              	261             	77              	52.9200     	200.0000    	109.0000    	0.0000      	Open  	; 
 40              	77              	262             	44.9200     	200.0000    	69.0000     	0.0000      	Open  	; 
 41              	262             	216             	127.0500    	200.0000    	90.0000     	0.0000      	Open  	; 
 42              	216             	263             	56.6800     	200.0000    	88.0000     	0.0000      	Open  	; 
 43              	263             	76              	181.2900    	200.0000    	95.0000     	0.0000      	Open  	; 
 44              	76              	217             	220.9000    	200.0000    	95.0000     	0.0000      	Open  	; 
 45              	217             	75              	67.6500     	200.0000    	80.0000     	0.0000      	Open  	; 
 46              	75              	74              	36.0600     	200.0000    	91.0000     	0.0000      	Open  	; 
 47              	74              	73              	242.2900    	150.0000    	89.0000     	0.0000      	Open  	; 
 48              	73              	72              	70.4500     	150.0000    	99.0000     	0.0000      	Open  	; 
 49              	72              	71              	112.8300    	150.0000    	105.0000    	0.0000      	Open  	; 
 50              	71              	70              	105.7200    	150.0000    	105.0000    	0.0000      	Open  	; 
 51              	70              	69              	199.4200    	150.0000    	80.0000     	0.0000      	Open  	; 
 52              	69              	68              	180.6400    	125.0000    	92.0000     	0.0000      	Open  	; 
 53              	68              	78              	288.7600    	125.0000    	75.0000     	0.0000      	Open  	; 
 54              	78              	154             	69.2600     	100.0000    	77.0000     	0.0000      	Open  	; 
 55              	154             	79              	718.4500    	100.0000    	91.0000     	0.0000      	Open  	; 
 56              	79              	155             	390.7800    	100.0000    	111.0000    	0.0000      	Open  	; 
 57              	155             	156             	24.0000     	125.0000    	81.0000     	0.0000      	Open  	; 
 58              	156             	95              	504.5200    	125.0000    	96.0000     	0.0000      	Open  	; 
 59              	95              	96              	41.7800     	150.0000    	88.0000     	0.0000      	Open  	; 
 60              	96              	97              	367.9300    	150.0000    	106.0000    	0.0000      	Open  	; 
 61              	97              	157             	101.8600    	150.0000    	77.0000     	0.0000      	Open  	; 
 62              	157             	98              	125.3600    	150.0000    	91.0000     	0.0000      	Open  	; 
 63              	98              	158             	699.7600    	150.0000    	98.0000     	0.0000      	Open  	; 
 64              	158             	136             	448.0500    	200.0000    	105.0000    	0.0000      	Open  	; 
 65              	136             	159             	114.2900    	200.0000    	111.0000    	0.0000      	Open  	; 
 66              	159             	160             	197.3000    	200.0000    	92.0000     	0.0000      	Open  	; 
 67              	160             	137             	235.9800    	200.0000    	72.0000     	0.0000      	Open  	; 
 68              	137             	135             	224.8700    	200.0000    	81.0000     	0.0000      	Open  	; 
 69              	135             	222             	176.7300    	125.0000    	77.0000     	0.0000      	Open  	; 
 70              	222             	161             	76.4400     	100.0000    	122.0000    	0.0000      	Open  	; 
 71              	161             	131             	356.9400    	100.0000    	83.0000     	0.0000      	Open  	; 
 72              	131             	242             	443.7900    	100.0000    	101.0000    	0.0000      	Open  	; 
 73              	242             	130             	20.5500     	100.0000    	88.0000     	0.0000      	Open  	; 
 74              	130             	241             	113.3300    	100.0000    	103.0000    	0.0000      	Open  	; 
 75              	241             	168             	25.9600     	100.0000    	81.0000     	0.0000      	Open  	; 
 76              	168             	167             	145.0400    	100.0000    	73.0000     	0.0000      	Open  	; 
 77              	167             	166             	55.2400     	100.0000    	73.0000     	0.0000      	Open  	; 
 78              	166             	129             	208.2200    	100.0000    	97.0000     	0.0000      	Open  	; 
 79              	129             	125             	190.4300    	100.0000    	89.0000     	0.0000      	Open  	; 
 80              	125             	246             	70.9800     	100.0000    	88.0000     	0.0000      	Open  	; 
 81              	246             	245             	52.0400     	100.0000    	109.0000    	0.0000      	Open  	; 
 82              	245             	124             	34.0300     	100.0000    	95.0000     	0.0000      	Open  	; 
 83              	124             	225             	79.4700     	100.0000    	94.0000     	0.0000      	Open  	; 
 84              	225             	226             	277.9900    	100.0000    	112.0000    	0.0000      	Open  	; 
 85              	176             	227             	86.0300     	100.0000    	81.0000     	0.0000      	Open  	; 
 86              	227             	177             	296.2500    	100.0000    	100.0000    	0.0000      	Open  	; 
 87              	177             	180             	111.3000    	100.0000    	102.0000    	0.0000      	Open  	; 
 88              	180             	178             	123.3700    	100.0000    	88.0000     	0.0000      	Open  	; 
 89              	178             	179             	196.2700    	100.0000    	94.0000     	0.0000      	Open  	; 
 90              	179             	228             	198.4600    	100.0000    	76.0000     	0.0000      	Open  	; 
 91              	228             	229             	75.6200     	100.0000    	76.0000     	0.0000      	Open  	; 
 92              	229             	121             	110.1400    	100.0000    	92.0000     	0.0000      	Open  	; 
 93              	121             	118             	423.5700    	100.0000    	100.0000    	0.0000      	Open  	; 
 94              	118             	117             	116.5700    	100.0000    	125.0000    	0.0000      	Open  	; 
 95              	117             	181             	100.6100    	100.0000    	82.0000     	0.0000      	Open  	; 
 96              	181             	182             	164.8400    	100.0000    	93.0000     	0.0000      	Open  	; 
 97              	182             	116             	47.4900     	100.0000    	90.0000     	0.0000      	Open  	; 
 98              	116             	247             	87.5400     	100.0000    	66.0000     	0.0000      	Open  	; 
 99              	49              	184             	189.2700    	150.0000    	85.0000     	0.0000      	Open  	; 
 100             	184             	41              	244.8000    	150.0000    	68.0000     	0.0000      	Open  	; 
 101             	41              	248             	293.4700    	150.0000    	102.0000    	0.0000      	Open  	; 
 102             	248             	40              	308.6400    	150.0000    	79.0000     	0.0000      	Open  	; 
 103             	40              	39              	566.5700    	150.0000    	92.0000     	0.0000      	Open  	; 